CRYSTAL
PRIMVEC
  2.772709   0.000000   0.000000
  0.000000   2.772709   0.000000
  0.000000   0.000000  21.566617
PRIMCOORD
5 1
78   0.000000   0.000000  -4.313323
78   1.386354   1.386354  -2.156662
78   0.000000   0.000000   0.000000
78   1.386354   1.386354   2.156662
78   0.000000   0.000000   4.313323
