CRYSTAL
PRIMVEC
  2.772709   0.000000   0.000000
  0.000000   3.921203   0.000000
  0.000000   0.000000  14.816962
PRIMCOORD
5 1
78   0.000000   0.000000  -2.772698
78   1.386354   1.960602  -1.386349
78   0.000000   0.000000   0.000000
78   1.386354   1.960602   1.386349
78   0.000000   0.000000   2.772698
