CRYSTAL
PRIMVEC
  2.772709   0.000000   0.000000
 -1.386354   2.401237   0.000000
  0.000000   0.000000  19.050379
PRIMCOORD
5 1
78   1.386353  -0.800411  -4.527818
78  -1.386353   0.800411  -2.263909
78   0.000000   0.000000   0.000000
78   1.386353  -0.800411   2.263909
78  -1.386353   0.800411   4.527818
