CRYSTAL
PRIMVEC
  7.839654   0.000000   0.000000
  0.000000   3.919832   0.000000
  0.000000   0.000000  23.518963
PRIMCOORD
20 1
78   0.000000   0.000000  21.559128
78   0.000000   0.000000   1.959835
78   3.919827   0.000000  21.559128
78   3.919827   0.000000   1.959835
78   1.959914   1.959916  21.559128
78   1.959914   1.959916   1.959835
78   5.879741   1.959916  21.559128
78   5.879741   1.959916   1.959835
78   1.959914   0.000000  19.599058
78   1.959914   0.000000   0.000000
78   1.959914   0.000000   3.919906
78   5.879741   0.000000  19.599058
78   5.879741   0.000000   0.000000
78   5.879741   0.000000   3.919906
78   0.000000   1.959916  19.599058
78   0.000000   1.959916   0.000000
78   0.000000   1.959916   3.919906
78   3.919827   1.959916  19.599058
78   3.919827   1.959916   0.000000
78   3.919827   1.959916   3.919906
