CRYSTAL
PRIMVEC
  7.839654   0.000000   0.000000
  0.000000   5.543449   0.000000
  0.000000   0.000000  16.630452
PRIMCOORD
21 1
 1   3.919827   2.771724   2.938102
78   0.000000   0.000000   1.385816
78   3.919827   0.000000   1.385816
78   0.000000   2.771724  15.244470
78   3.919827   2.771724  15.244470
78   0.000000   0.000000  15.244470
78   3.919827   0.000000  15.244470
78   0.000000   2.771724   1.385816
78   3.919827   2.771724   1.385816
78   1.959914   4.157587  13.858654
78   1.959914   4.157587   2.771631
78   5.879741   4.157587  13.858654
78   5.879741   4.157587   2.771631
78   1.959914   1.385862  16.630452
78   5.879741   1.385862  16.630452
78   1.959914   1.385862  13.858654
78   1.959914   1.385862   2.771631
78   5.879741   1.385862  13.858654
78   5.879741   1.385862   2.771631
78   1.959914   4.157587  16.630452
78   5.879741   4.157587  16.630452
