CRYSTAL
PRIMVEC
  5.543449   0.000000   0.000000
  0.000000   4.800791   0.000000
  0.000000   0.000000  24.441637
PRIMCOORD
21 1
 1   2.771724   2.400395   5.112702
78   0.000000   0.000000   4.526102
78   0.000000   0.000000  22.178585
78   2.771724   0.000000   4.526102
78   2.771724   0.000000  22.178585
78   0.000000   3.200543  24.441637
78   2.771724   3.200543  24.441637
78   2.771724   1.600248  19.915290
78   2.771724   1.600248   2.263051
78   0.000000   1.600248  19.915290
78   0.000000   1.600248   2.263051
78   4.157587   0.800148  24.441637
78   1.385862   0.800148  24.441637
78   4.157587   4.000643  19.915290
78   4.157587   4.000643   2.263051
78   1.385862   4.000643  19.915290
78   1.385862   4.000643   2.263051
78   1.385862   2.400395   4.526102
78   1.385862   2.400395  22.178585
78   4.157587   2.400395   4.526102
78   4.157587   2.400395  22.178585
